{
  "0": "<li><a class = \"page\" href=\"82\"> \n  CHAPTER I\n  ARGUMENT.\n  MINERVA'S DESCENT TO ITHACA.\n </a> <span class=\"flex\">82</span> </li>",
  "1": "<li><a class = \"page\" href=\"113\"> \n  CHAPTER II.\n  ARGUMENT.\n  THE COUNCIL OF ITHACA.\n </a> <span class=\"flex\">113</span> </li>",
  "2": "<li><a class = \"page\" href=\"142\"> \n  CHAPTER III\n  ARGUMENT\n  THE INTERVIEW OF TELEMACHUS AND NESTOR.\n </a> <span class=\"flex\">142</span> </li>",
  "3": "<li><a class = \"page\" href=\"178\"> \n  CHAPTER IV.\n  ARGUMENT.\n  THE CONFERENCE WITH MENELAUS.\n </a> <span class=\"flex\">178</span> </li>",
  "4": "<li><a class = \"page\" href=\"238\"> \n  CHAPTER V.\n  ARGUMENT\n  THE DEPARTURE OF ULYSSES FROM CALYPSO\n </a> <span class=\"flex\">238</span> </li>",
  "5": "<li><a class = \"page\" href=\"274\"> \n  CHAPTER VI.\n  ARGUMENT.\n </a> <span class=\"flex\">274</span> </li>",
  "6": "<li><a class = \"page\" href=\"297\"> \n  CHAPTER VII.\n  ARGUMENT.\n  The court of Alcinous.\n </a> <span class=\"flex\">297</span> </li>",
  "7": "<li><a class = \"page\" href=\"322\"> \n  CHAPTER VIII.\n  ARGUMENT.\n </a> <span class=\"flex\">322</span> </li>",
  "8": "<li><a class = \"page\" href=\"359\"> \n  CHAPTER IX.\n  THE ADVENTURES OF THE CICONS, LOTOPHAGI AND CYCLOPS\n </a> <span class=\"flex\">359</span> </li>",
  "9": "<li><a class = \"page\" href=\"396\"> \n  CHAPTER X.\n  ARGUMENT.\n  ADVENTURES WITH AEOLUS, THE LAESTRYGONS, AND CIRCE.\n </a> <span class=\"flex\">396</span> </li>",
  "10": "<li><a class = \"page\" href=\"436\"> \n  CHAPTER XI.\n  ARGUMENT.\n  THE DESCENT INTO HELL.\n </a> <span class=\"flex\">436</span> </li>",
  "11": "<li><a class = \"page\" href=\"483\"> \n  CHAPTER XII\n  ARGUMENT.\n  THE SIRENE, SCYLLA, AND CHARYBDIS.\n </a> <span class=\"flex\">483</span> </li>",
  "12": "<li><a class = \"page\" href=\"516\"> \n  CHAPTER XIII\n  ARGUMENT.\n  THE ARRIVAL OF ULYSSES IN ITHACA.\n </a> <span class=\"flex\">516</span> </li>",
  "13": "<li><a class = \"page\" href=\"546\"> \n  CHAPTER XIV.\n  ARGUMENT.\n  THE CONVERSATION WITH EUMAEUS.\n </a> <span class=\"flex\">546</span> </li>",
  "14": "<li><a class = \"page\" href=\"579\"> \n  CHAPTER XV.\n  ARGUMENT.\n  THE RETURN OF TELEMACHUS.\n </a> <span class=\"flex\">579</span> </li>",
  "15": "<li><a class = \"page\" href=\"613\"> \n  CHAPTER XVI.\n  ARGUMENT.\n  THE DISCOVERY OF ULYSSES TO TELEMACHUS.\n </a> <span class=\"flex\">613</span> </li>",
  "16": "<li><a class = \"page\" href=\"643\"> \n  CHAPTER XVII.\n  ARGUMENT.\n </a> <span class=\"flex\">643</span> </li>",
  "17": "<li><a class = \"page\" href=\"682\"> \n  CHAPTER XVIII.\n  ARGUMENT.\n  THE FIGHT OF ULYSSES AND IRUS.\n </a> <span class=\"flex\">682</span> </li>",
  "18": "<li><a class = \"page\" href=\"711\"> \n  CHAPTER XIX.\n  ARGUMENT.\n  THE DISCOVERY OF ULYSSES TO EURYCLEA.\n </a> <span class=\"flex\">711</span> </li>",
  "19": "<li><a class = \"page\" href=\"750\"> \n  CHAPTER XX.\n  ARGUMENT.\n </a> <span class=\"flex\">750</span> </li>",
  "20": "<li><a class = \"page\" href=\"777\"> \n  CHAPTER XXI.\n  ARGUMENT.\n  THE BENDING OF ULYSSES' BOW.\n </a> <span class=\"flex\">777</span> </li>",
  "21": "<li><a class = \"page\" href=\"805\"> \n  CHAPTER XXII.\n  ARGUMENT.\n  THE DEATH OF THE SUITORS.\n </a> <span class=\"flex\">805</span> </li>",
  "22": "<li><a class = \"page\" href=\"838\"> \n  CHAPTER XXIII.\n  ARGUMENT.\n </a> <span class=\"flex\">838</span> </li>",
  "23": "<li><a class = \"page\" href=\"861\"> \n  CHAPTER XXIV.\n  ARGUMENT.\n </a> <span class=\"flex\">861</span> </li>"
}